v3/g7_confirmatory/artifacts/m27_repeatability_coverage_attempt1/cells/seed6102_responsive_midday/probe_ev4_plus30/Current_Dump_NR.csv
# Current_Dump_NR.csv run at 2013-08-28 12:00:00 PST on 804 links
link_name,currA_real,currA_imag,currB_real,currB_imag,currC_real,currC_imag
substation_transformer,13.179976,-3.998810,-8.073538,-6.777227,-2.689889,11.016443
linobj12,0.000000,0.000000,-46.913652,-75.773393,0.000000,0.000000
linobj13,0.000000,0.000000,0.000000,0.000000,-49.530579,107.921431
linobj17,724.565738,-220.287653,-405.657032,-304.131226,-101.253996,509.616879
linobj34,0.000000,0.000000,0.000000,0.000000,-3.786434,14.264596
linobj35,0.000000,0.000000,0.000000,0.000000,-45.744145,93.656835
linobj56,0.000000,0.000000,0.000000,0.000000,-3.723781,14.224731
linobj78,717.478811,-218.268759,-405.657032,-304.131226,-101.253996,509.616879
linobj812,0.000000,0.000000,-5.318657,-5.250178,0.000000,0.000000
linobj89,35.885737,-10.526286,0.000000,0.000000,0.000000,0.000000
linobj813,681.593074,-207.742472,-400.338375,-298.881048,-101.253996,509.616879
linobj140114,21.420524,-6.295354,0.000000,0.000000,0.000000,0.000000
linobj1334,0.000000,0.000000,0.000000,0.000000,-8.925663,35.285479
linobj1318,233.873810,-63.744245,-162.045509,-89.895089,-18.480388,156.885315
linobj1411,14.242907,-4.180604,0.000000,0.000000,0.000000,0.000000
linobj1410,7.177617,-2.114750,0.000000,0.000000,0.000000,0.000000
linobj1516,0.000000,0.000000,0.000000,0.000000,-3.561445,14.082878
linobj1517,0.000000,0.000000,0.000000,0.000000,-1.790827,7.107619
linobj1819,27.231484,-8.594048,0.000000,0.000000,0.000000,0.000000
linobj1821,41.491032,-13.211399,-10.537249,-10.222230,-10.621407,42.725952
linobj1920,13.608555,-4.297662,0.000000,0.000000,0.000000,0.000000
linobj2122,0.000000,0.000000,-10.537249,-10.222230,0.000000,0.000000
linobj2123,41.491032,-13.211399,0.000000,0.000000,-10.621407,42.725952
linobj2324,0.000000,0.000000,0.000000,0.000000,-3.481147,13.975559
linobj2325,41.491032,-13.211399,0.000000,0.000000,-7.140260,28.750393
linobj260126,13.923729,-4.440302,0.000000,0.000000,-3.576199,14.432758
linobj2528,27.219210,-8.660089,0.000000,0.000000,-3.474657,13.956816
linobj2627,13.923729,-4.440302,0.000000,0.000000,0.000000,0.000000
linobj2631,0.000000,0.000000,0.000000,0.000000,-3.576199,14.432758
linobj2733,13.923729,-4.440302,0.000000,0.000000,0.000000,0.000000
linobj2829,13.611438,-4.332777,0.000000,0.000000,-3.474657,13.956816
linobj2930,0.000000,0.000000,0.000000,0.000000,-3.474657,13.956816
linobj30250,0.000000,0.000000,0.000000,0.000000,0.000000,0.000000
linobj3132,0.000000,0.000000,0.000000,0.000000,-1.787809,7.217274
linobj3415,0.000000,0.000000,0.000000,0.000000,-5.352271,21.190498
linobj3536,13.571131,-4.327607,-10.636484,-10.248289,0.000000,0.000000
linobj3540,108.193675,-55.184443,-97.485288,-51.851318,-7.858981,114.159363
linobj3637,13.571131,-4.327607,0.000000,0.000000,0.000000,0.000000
linobj3638,0.000000,0.000000,-10.636484,-10.248289,0.000000,0.000000
linobj3839,0.000000,0.000000,-5.319166,-5.124283,0.000000,0.000000
linobj4041,0.000000,0.000000,0.000000,0.000000,-1.736981,7.050573
linobj4042,108.193675,-55.184443,-97.485288,-51.851318,-6.121999,107.108790
linobj4243,0.000000,0.000000,-10.515557,-10.133144,0.000000,0.000000
linobj4244,101.364240,-52.987914,-86.969730,-41.718174,-6.121999,107.108790
linobj4445,13.627354,-4.400936,0.000000,0.000000,0.000000,0.000000
linobj4447,87.736886,-48.586978,-86.969730,-41.718174,-6.121999,107.108790
linobj4546,6.813023,-2.200856,0.000000,0.000000,0.000000,0.000000
linobj4748,27.002296,-21.893838,-33.008226,-13.838940,4.553168,34.876555
linobj4749,46.822801,-15.416297,-37.446843,-20.953096,-12.990414,54.474245
linobj4950,6.803978,-2.207397,0.000000,0.000000,-3.391185,13.932861
linobj5051,6.803978,-2.207397,0.000000,0.000000,0.000000,0.000000
linobj51151,0.000000,0.000000,0.000000,0.000000,0.000000,0.000000
linobj5253,434.116249,-139.727455,-238.292866,-208.985959,-73.847945,317.446085
linobj5354,420.588498,-135.411158,-238.292866,-208.985959,-73.847945,317.446085
linobj5455,6.794056,-2.197696,-5.354934,-5.144400,0.000000,0.000000
linobj5457,413.794442,-133.213462,-232.937932,-203.841560,-73.847945,317.446085
linobj5556,0.000000,0.000000,-5.354934,-5.144400,0.000000,0.000000
linobj5758,0.000000,0.000000,-10.708845,-10.201874,0.000000,0.000000
linobj5760,413.794442,-133.213462,-222.229088,-193.639686,-73.847945,317.446085
linobj5859,0.000000,0.000000,-5.355793,-5.101764,0.000000,0.000000
linobj6061,0.000000,0.000000,0.000000,0.000000,0.000000,0.000000
linobj6062,29.937313,-24.830551,-35.506404,-24.737444,-9.866422,65.775062
linobj6263,29.937313,-24.830551,-35.506404,-24.737444,-6.623593,51.939401
linobj6364,16.823373,-20.223659,-35.506404,-24.737444,-6.623593,51.939401
linobj6465,16.823373,-20.223659,-16.097369,-6.511557,-6.623593,51.939401
linobj6566,0.000000,0.000000,0.000000,0.000000,-5.897589,25.204185
linobj6768,39.993006,-14.527620,0.000000,0.000000,0.000000,0.000000
linobj6772,176.996505,-54.592097,-103.994571,-65.968783,-50.980905,196.103832
linobj6797,151.051034,-34.339605,-78.173901,-98.813892,-11.440093,49.428874
linobj6869,33.274778,-12.089535,0.000000,0.000000,0.000000,0.000000
linobj6970,19.975484,-7.267694,0.000000,0.000000,0.000000,0.000000
linobj7071,13.276442,-4.826443,0.000000,0.000000,0.000000,0.000000
linobj7273,0.000000,0.000000,0.000000,0.000000,-9.604380,42.205941
linobj7276,176.996505,-54.592097,-103.994571,-65.968783,-41.376525,153.897891
linobj7374,0.000000,0.000000,0.000000,0.000000,-6.391587,28.129490
linobj7475,0.000000,0.000000,0.000000,0.000000,-3.194210,14.069445
linobj7677,26.556885,-9.771884,-21.749176,-20.244601,-6.317218,28.212981
linobj7686,112.228432,-19.512933,-38.123772,-35.449491,-40.969741,90.102938
linobj7778,26.556885,-9.771884,-10.873437,-10.119985,-6.317218,28.212981
linobj7879,13.276271,-4.879197,0.000000,0.000000,0.000000,0.000000
linobj7880,13.280614,-4.892687,-10.873437,-10.119985,-6.317218,28.212981
linobj8081,13.280614,-4.892687,0.000000,0.000000,-6.317218,28.212981
linobj8182,13.280614,-4.892687,0.000000,0.000000,-1.592032,7.094479
linobj8184,0.000000,0.000000,0.000000,0.000000,-4.725186,21.118503
linobj8283,0.000000,0.000000,0.000000,0.000000,-1.592032,7.094479
linobj8485,0.000000,0.000000,0.000000,0.000000,-3.143416,14.035642
linobj8687,112.228432,-19.512933,-32.641041,-30.355951,-40.969741,90.102938
linobj8788,98.988902,-14.531513,0.000000,0.000000,0.000000,0.000000
linobj8789,13.239529,-4.981420,-21.786894,-20.253120,-40.969741,90.102938
linobj8990,0.000000,0.000000,-10.843661,-10.091627,0.000000,0.000000
linobj8991,13.239529,-4.981420,-10.943233,-10.161493,-40.969741,90.102938
linobj9192,0.000000,0.000000,0.000000,0.000000,-40.969741,90.102938
linobj9193,13.239529,-4.981420,-10.943233,-10.161493,0.000000,0.000000
linobj9394,13.239529,-4.981420,0.000000,0.000000,0.000000,0.000000
linobj9395,0.000000,0.000000,-10.943233,-10.161493,0.000000,0.000000
linobj9596,0.000000,0.000000,-5.472105,-5.080727,0.000000,0.000000
linobj9798,13.314287,-4.841421,-10.901643,-10.121783,-3.271597,14.130132
linobj9899,0.000000,0.000000,-10.901643,-10.121783,-3.271597,14.130132
linobj99100,0.000000,0.000000,0.000000,0.000000,-3.271597,14.130132
linobj100450,0.000000,0.000000,0.000000,0.000000,0.000000,0.000000
linobj101102,0.000000,0.000000,0.000000,0.000000,-8.168496,35.298742
linobj101105,137.736746,-29.498184,-67.272259,-88.692109,0.000000,0.000000
linobj102103,0.000000,0.000000,0.000000,0.000000,-6.521005,28.179692
linobj103104,0.000000,0.000000,0.000000,0.000000,-3.254051,14.085938
linobj105106,0.000000,0.000000,-67.272259,-88.692109,0.000000,0.000000
linobj105108,137.736746,-29.498184,0.000000,0.000000,0.000000,0.000000
linobj106107,0.000000,0.000000,-56.329834,-78.661336,0.000000,0.000000
linobj108109,137.736746,-29.498184,0.000000,0.000000,0.000000,0.000000
linobj108300,0.000000,0.000000,0.000000,0.000000,0.000000,0.000000
linobj109110,124.687481,-24.538150,0.000000,0.000000,0.000000,0.000000
linobj110111,6.535677,-2.524149,0.000000,0.000000,0.000000,0.000000
linobj110112,118.151803,-22.014001,0.000000,0.000000,0.000000,0.000000
linobj112113,111.625526,-19.484307,0.000000,0.000000,0.000000,0.000000
linobj113114,98.787545,-14.431658,0.000000,0.000000,0.000000,0.000000
linobj13535,165.151294,-41.938798,-151.508260,-79.672859,-7.858981,114.159363
linobj1491,738.817417,-224.157504,-452.570684,-379.904619,-150.784575,617.538311
linobj15252,447.719264,-143.998228,-238.292866,-208.985959,-73.847945,317.446085
linobj670167,368.040544,-103.459323,-182.168472,-164.782675,-62.420998,245.532706
linobj197101,137.736746,-29.498184,-67.272259,-88.692109,-8.168496,35.298742
triplex_l1,14.251679,-3.869851,0.000000,0.000000,0.000000,0.000000
l1_tpn_tm,142.218756,-38.233262,-142.218756,38.233262,0.000000,0.000000
triplex_l2,0.000000,0.000000,-5.297131,-5.297401,0.000000,0.000000
l2_tpn_tm,-52.376410,-52.906170,52.376410,52.906170,0.000000,0.000000
triplex_l4,0.000000,0.000000,0.000000,0.000000,-3.786434,14.264596
l4_tpn_tm,-38.117657,142.155058,38.117657,-142.155058,0.000000,0.000000
triplex_l5,0.000000,0.000000,0.000000,0.000000,-1.872904,7.178790
l5_tpn_tm,-18.968993,71.245763,18.968993,-71.245763,0.000000,0.000000
triplex_l6,0.000000,0.000000,0.000000,0.000000,-3.723781,14.224731
l6_tpn_tm,-37.491840,141.759146,37.491840,-141.759146,0.000000,0.000000
triplex_l7,7.086927,-2.018894,0.000000,0.000000,0.000000,0.000000
l7_tpn_tm,70.526414,-19.710115,-70.526414,19.710115,0.000000,0.000000
triplex_l9,13.929700,-4.073548,0.000000,0.000000,0.000000,0.000000
l9_tpn_tm,139.013310,-40.273028,-139.013310,40.273028,0.000000,0.000000
triplex_l10,7.177617,-2.114750,0.000000,0.000000,0.000000,0.000000
l10_tpn_tm,71.432386,-20.658114,-71.432386,20.658114,0.000000,0.000000
triplex_l11,14.242907,-4.180604,0.000000,0.000000,0.000000,0.000000
l11_tpn_tm,142.139186,-41.332511,-142.139186,41.332511,0.000000,0.000000
triplex_l12,0.000000,0.000000,-5.318657,-5.250178,0.000000,0.000000
l12_tpn_tm,-52.592983,-52.438039,52.592983,52.438039,0.000000,0.000000
triplex_l16,0.000000,0.000000,0.000000,0.000000,-3.561445,14.082878
l16_tpn_tm,-35.869353,140.348806,35.869353,-140.348806,0.000000,0.000000
triplex_l17,0.000000,0.000000,0.000000,0.000000,-1.790827,7.107619
l17_tpn_tm,-18.149721,70.542849,18.149721,-70.542849,0.000000,0.000000
triplex_l19,13.622929,-4.296387,0.000000,0.000000,0.000000,0.000000
l19_tpn_tm,135.959637,-42.502897,-135.959637,42.502897,0.000000,0.000000
triplex_l20,13.608555,-4.297662,0.000000,0.000000,0.000000,0.000000
l20_tpn_tm,135.816193,-42.515821,-135.816193,42.515821,0.000000,0.000000
triplex_l22,0.000000,0.000000,-10.537249,-10.222230,0.000000,0.000000
l22_tpn_tm,-104.823243,-102.203385,104.823243,102.203385,0.000000,0.000000
triplex_l24,0.000000,0.000000,0.000000,0.000000,-3.481147,13.975559
l24_tpn_tm,-35.065783,139.280965,35.065783,-139.280965,0.000000,0.000000
triplex_l28,13.607772,-4.327312,0.000000,0.000000,0.000000,0.000000
l28_tpn_tm,135.809131,-42.811517,-135.809131,42.811517,0.000000,0.000000
triplex_l29,13.611438,-4.332777,0.000000,0.000000,0.000000,0.000000
l29_tpn_tm,135.845990,-42.866118,-135.845990,42.866118,0.000000,0.000000
triplex_l30,0.000000,0.000000,0.000000,0.000000,-3.474657,13.956816
l30_tpn_tm,-35.000739,139.093742,35.000739,-139.093742,0.000000,0.000000
triplex_l31,0.000000,0.000000,0.000000,0.000000,-1.788390,7.215484
l31_tpn_tm,-18.131001,71.614500,18.131001,-71.614500,0.000000,0.000000
triplex_l32,0.000000,0.000000,0.000000,0.000000,-1.787809,7.217274
l32_tpn_tm,-18.125216,71.632628,18.125216,-71.632628,0.000000,0.000000
triplex_l33,13.923729,-4.440302,0.000000,0.000000,0.000000,0.000000
l33_tpn_tm,138.962623,-43.930147,-138.962623,43.930147,0.000000,0.000000
triplex_l34,0.000000,0.000000,0.000000,0.000000,-3.573392,14.094982
l34_tpn_tm,-35.988791,140.469220,35.988791,-140.469220,0.000000,0.000000
triplex_l37,13.571131,-4.327607,0.000000,0.000000,0.000000,0.000000
l37_tpn_tm,135.443842,-42.815506,-135.443842,42.815506,0.000000,0.000000
triplex_l38,0.000000,0.000000,-5.317318,-5.124006,0.000000,0.000000
l38_tpn_tm,-52.585701,-51.184081,52.585701,51.184081,0.000000,0.000000
triplex_l39,0.000000,0.000000,-5.319166,-5.124283,0.000000,0.000000
l39_tpn_tm,-52.604378,-51.186991,52.604378,51.186991,0.000000,0.000000
triplex_l41,0.000000,0.000000,0.000000,0.000000,-1.736981,7.050573
l41_tpn_tm,-17.611734,69.978814,17.611734,-69.978814,0.000000,0.000000
triplex_l42,6.829434,-2.196529,0.000000,0.000000,0.000000,0.000000
l42_tpn_tm,67.976933,-21.488771,-67.976933,21.488771,0.000000,0.000000
triplex_l43,0.000000,0.000000,-10.515557,-10.133144,0.000000,0.000000
l43_tpn_tm,-104.609061,-101.314423,104.609061,101.314423,0.000000,0.000000
triplex_l45,6.814332,-2.200080,0.000000,0.000000,0.000000,0.000000
l45_tpn_tm,67.826858,-21.524615,-67.826858,21.524615,0.000000,0.000000
triplex_l46,6.813023,-2.200856,0.000000,0.000000,0.000000,0.000000
l46_tpn_tm,67.813945,-21.532464,-67.813945,21.532464,0.000000,0.000000
triplex_l50,0.000000,0.000000,0.000000,0.000000,-3.391185,13.932861
l50_tpn_tm,-34.167655,138.857193,34.167655,-138.857193,0.000000,0.000000
triplex_l51,6.803978,-2.207397,0.000000,0.000000,0.000000,0.000000
l51_tpn_tm,67.724377,-21.597894,-67.724377,21.597894,0.000000,0.000000
triplex_l52,13.603014,-4.270772,0.000000,0.000000,0.000000,0.000000
l52_tpn_tm,135.760285,-42.247834,-135.760285,42.247834,0.000000,0.000000
triplex_l53,13.527751,-4.316298,0.000000,0.000000,0.000000,0.000000
l53_tpn_tm,135.010984,-42.703840,-135.010984,42.703840,0.000000,0.000000
triplex_l55,6.794056,-2.197696,0.000000,0.000000,0.000000,0.000000
l55_tpn_tm,67.625246,-21.501931,-67.625246,21.501931,0.000000,0.000000
triplex_l56,0.000000,0.000000,-5.354934,-5.144400,0.000000,0.000000
l56_tpn_tm,-52.958611,-51.388642,52.958611,51.388642,0.000000,0.000000
triplex_l58,0.000000,0.000000,-5.353052,-5.100110,0.000000,0.000000
l58_tpn_tm,-52.941913,-50.948371,52.941913,50.948371,0.000000,0.000000
triplex_l59,0.000000,0.000000,-5.355793,-5.101764,0.000000,0.000000
l59_tpn_tm,-52.969477,-50.965035,52.969477,50.965035,0.000000,0.000000
triplex_l60,6.615571,-2.337105,0.000000,0.000000,0.000000,0.000000
l60_tpn_tm,65.858821,-22.896626,-65.858821,22.896626,0.000000,0.000000
triplex_l62,0.000000,0.000000,0.000000,0.000000,-3.242829,13.835661
l62_tpn_tm,-32.685542,137.892263,32.685542,-137.892263,0.000000,0.000000
triplex_l63,13.113940,-4.606893,0.000000,0.000000,0.000000,0.000000
l63_tpn_tm,130.892111,-45.612745,-130.892111,45.612745,0.000000,0.000000
triplex_l64,0.000000,0.000000,-19.409034,-18.225887,0.000000,0.000000
l64_tpn_tm,-193.614234,-182.311271,193.614234,182.311271,0.000000,0.000000
triplex_l66,0.000000,0.000000,0.000000,0.000000,-5.897589,25.204185
l66_tpn_tm,-59.251529,251.666872,59.251529,-251.666872,0.000000,0.000000
triplex_l68,6.718227,-2.438085,0.000000,0.000000,0.000000,0.000000
l68_tpn_tm,66.883755,-23.894710,-66.883755,23.894710,0.000000,0.000000
triplex_l69,13.299295,-4.821841,0.000000,0.000000,0.000000,0.000000
l69_tpn_tm,132.745323,-47.750860,-132.745323,47.750860,0.000000,0.000000
triplex_l70,6.699042,-2.441250,0.000000,0.000000,0.000000,0.000000
l70_tpn_tm,66.693191,-23.927036,-66.693191,23.927036,0.000000,0.000000
triplex_l71,13.276442,-4.826443,0.000000,0.000000,0.000000,0.000000
l71_tpn_tm,132.517545,-47.797335,-132.517545,47.797335,0.000000,0.000000
triplex_l73,0.000000,0.000000,0.000000,0.000000,-3.212793,14.076451
l73_tpn_tm,-32.392422,140.293206,32.392422,-140.293206,0.000000,0.000000
triplex_l74,0.000000,0.000000,0.000000,0.000000,-3.197378,14.060045
l74_tpn_tm,-32.238293,140.129966,32.238293,-140.129966,0.000000,0.000000
triplex_l75,0.000000,0.000000,0.000000,0.000000,-3.194210,14.069445
l75_tpn_tm,-32.206669,140.224569,32.206669,-140.224569,0.000000,0.000000
triplex_l77,0.000000,0.000000,-10.875739,-10.124616,0.000000,0.000000
l77_tpn_tm,-108.201745,-101.238579,108.201745,101.238579,0.000000,0.000000
triplex_l79,13.276271,-4.879197,0.000000,0.000000,0.000000,0.000000
l79_tpn_tm,132.517211,-48.323463,-132.517211,48.323463,0.000000,0.000000
triplex_l80,0.000000,0.000000,-10.873437,-10.119985,0.000000,0.000000
l80_tpn_tm,-108.178957,-101.192352,108.178957,101.192352,0.000000,0.000000
triplex_l82,13.280614,-4.892687,0.000000,0.000000,0.000000,0.000000
l82_tpn_tm,132.560963,-48.458020,-132.560963,48.458020,0.000000,0.000000
triplex_l83,0.000000,0.000000,0.000000,0.000000,-1.592032,7.094479
l83_tpn_tm,-16.173524,70.422206,16.173524,-70.422206,0.000000,0.000000
triplex_l84,0.000000,0.000000,0.000000,0.000000,-1.581770,7.082861
l84_tpn_tm,-16.071011,70.307122,16.071011,-70.307122,0.000000,0.000000
triplex_l85,0.000000,0.000000,0.000000,0.000000,-3.143416,14.035642
l85_tpn_tm,-31.699378,139.888486,31.699378,-139.888486,0.000000,0.000000
triplex_l86,0.000000,0.000000,-5.482731,-5.093539,0.000000,0.000000
l86_tpn_tm,-54.231094,-50.889575,54.231094,50.889575,0.000000,0.000000
triplex_l87,0.000000,0.000000,-10.854147,-10.102831,0.000000,0.000000
l87_tpn_tm,-107.986415,-101.020681,107.986415,101.020681,0.000000,0.000000
triplex_l88,13.182620,-4.986763,0.000000,0.000000,0.000000,0.000000
l88_tpn_tm,131.585992,-49.398499,-131.585992,49.398499,0.000000,0.000000
triplex_l90,0.000000,0.000000,-10.843661,-10.091627,0.000000,0.000000
l90_tpn_tm,-107.882307,-100.908718,107.882307,100.908718,0.000000,0.000000
triplex_l92,0.000000,0.000000,0.000000,0.000000,-3.009111,13.992042
l92_tpn_tm,-30.358875,139.457277,30.358875,-139.457277,0.000000,0.000000
triplex_l94,13.239529,-4.981420,0.000000,0.000000,0.000000,0.000000
l94_tpn_tm,132.153737,-49.344241,-132.153737,49.344241,0.000000,0.000000
triplex_l95,0.000000,0.000000,-5.471128,-5.080766,0.000000,0.000000
l95_tpn_tm,-54.116341,-50.762043,54.116341,50.762043,0.000000,0.000000
triplex_l96,0.000000,0.000000,-5.472105,-5.080727,0.000000,0.000000
l96_tpn_tm,-54.126235,-50.761743,54.126235,50.761743,0.000000,0.000000
triplex_l98,13.314287,-4.841421,0.000000,0.000000,0.000000,0.000000
l98_tpn_tm,132.895789,-47.946322,-132.895789,47.946322,0.000000,0.000000
triplex_l99,0.000000,0.000000,-10.901643,-10.121783,0.000000,0.000000
l99_tpn_tm,-108.459448,-101.210842,108.459448,101.210842,0.000000,0.000000
triplex_l100,0.000000,0.000000,0.000000,0.000000,-3.271597,14.130132
l100_tpn_tm,-32.979964,140.827710,32.979964,-140.827710,0.000000,0.000000
triplex_l102,0.000000,0.000000,0.000000,0.000000,-1.647491,7.119050
l102_tpn_tm,-16.725873,70.663610,16.725873,-70.663610,0.000000,0.000000
triplex_l103,0.000000,0.000000,0.000000,0.000000,-3.266954,14.093755
l103_tpn_tm,-32.932894,140.464628,32.932894,-140.464628,0.000000,0.000000
triplex_l104,0.000000,0.000000,0.000000,0.000000,-3.254051,14.085938
l104_tpn_tm,-32.803905,140.387344,32.803905,-140.387344,0.000000,0.000000
triplex_l106,0.000000,0.000000,-10.942425,-10.030773,0.000000,0.000000
l106_tpn_tm,-108.868471,-100.304304,108.868471,100.304304,0.000000,0.000000
triplex_l107,0.000000,0.000000,-10.939906,-9.917269,0.000000,0.000000
l107_tpn_tm,-108.846648,-99.172424,108.846648,99.172424,0.000000,0.000000
triplex_l109,13.049266,-4.960034,0.000000,0.000000,0.000000,0.000000
l109_tpn_tm,130.255581,-49.135449,-130.255581,49.135449,0.000000,0.000000
triplex_l111,6.535677,-2.524149,0.000000,0.000000,0.000000,0.000000
l111_tpn_tm,65.073975,-24.759124,-65.073975,24.759124,0.000000,0.000000
triplex_l112,6.526278,-2.529694,0.000000,0.000000,0.000000,0.000000
l112_tpn_tm,64.980936,-24.814819,-64.980936,24.814819,0.000000,0.000000
triplex_l113,12.837981,-5.052649,0.000000,0.000000,0.000000,0.000000
l113_tpn_tm,128.151418,-50.065021,-128.151418,50.065021,0.000000,0.000000
triplex_l114,6.434308,-2.567710,0.000000,0.000000,0.000000,0.000000
l114_tpn_tm,64.068981,-25.197333,-64.068981,25.197333,0.000000,0.000000
sw13152,447.719264,-143.998228,-238.292866,-208.985959,-73.847945,317.446085
sw18135,165.151294,-41.938798,-151.508260,-79.672859,-7.858981,114.159363
sw60160,377.241558,-106.045806,-186.722684,-168.902242,-63.981523,251.671023
sw61611,0.000000,0.000000,0.000000,0.000000,0.000000,0.000000
sw97197,137.736746,-29.498184,-67.272259,-88.692109,-8.168496,35.298742
sw1491149,738.817417,-224.157504,-452.570684,-379.904619,-150.784575,617.538311
sw250251,0.000000,0.000000,0.000000,0.000000,0.000000,0.000000
sw450451,0.000000,0.000000,0.000000,0.000000,0.000000,0.000000
sw300350,0.000000,0.000000,0.000000,0.000000,0.000000,0.000000
sw95195,0.000000,0.000000,0.000000,0.000000,0.000000,0.000000
tran611610,0.000000,0.000000,0.000000,0.000000,0.000000,0.000000
reg1501491,757.287852,-229.761441,-463.884951,-389.402234,-154.554190,632.976768
reg252601,14.271822,-4.551310,0.000000,0.000000,-3.665604,14.793577
reg91401,21.956037,-6.452738,0.000000,0.000000,0.000000,0.000000
reg1606701,377.241558,-106.045806,-186.722684,-168.902242,-63.981523,251.671023
swEV6,92.353236,-11.863948,0.000000,0.000000,0.000000,0.000000
swEV5,0.000000,0.000000,-45.389928,-68.744067,0.000000,0.000000
swEV4,0.000000,0.000000,0.000000,0.000000,-37.960631,76.110896
swEV3,85.806283,-9.544750,0.000000,0.000000,0.000000,0.000000
swEV2,0.000000,0.000000,-41.616521,-70.475992,0.000000,0.000000
swEV1,0.000000,0.000000,0.000000,0.000000,-40.147460,72.253313
